Version 4
SHEET 1 880 680
WIRE -672 -320 -1168 -320
WIRE -576 -320 -672 -320
WIRE -608 -288 -1088 -288
WIRE -576 -288 -608 -288
WIRE -608 -256 -640 -256
WIRE -576 -256 -608 -256
WIRE -688 -224 -720 -224
WIRE -576 -224 -688 -224
WIRE -1168 -128 -1168 -320
WIRE -1168 -128 -1232 -128
WIRE -288 -128 -1168 -128
WIRE -128 -128 -288 -128
WIRE -1232 -80 -1232 -128
WIRE -1088 -80 -1088 -288
WIRE -240 -80 -1088 -80
WIRE -1168 -32 -1168 -128
WIRE -336 -32 -560 -32
WIRE -1088 -16 -1088 -80
WIRE -384 16 -480 16
WIRE -288 16 -288 -128
WIRE -1168 64 -1168 -32
WIRE -1088 64 -1088 -16
WIRE -384 64 -384 16
WIRE -336 64 -336 -32
WIRE -240 64 -240 -80
WIRE -384 112 -384 64
WIRE -336 112 -336 64
WIRE -288 112 -288 16
WIRE -240 112 -240 64
WIRE -128 240 -128 -128
WIRE -32 240 -128 240
WIRE 64 240 -32 240
WIRE -640 352 -640 -256
WIRE -480 352 -480 16
WIRE -480 352 -640 352
WIRE -16 352 -480 352
WIRE 64 352 -16 352
WIRE -720 400 -720 -224
WIRE -560 400 -560 -32
WIRE -560 400 -720 400
WIRE -16 400 -560 400
WIRE 64 400 -16 400
FLAG -224 -256 LCD_backpack
FLAG 192 224 NodeMCU
FLAG -1024 192 5v_power_supply
FLAG -304 208 Si7021_Temp_Humid_Sens
FLAG -672 -320 common_GND
FLAG -608 -288 VCC
FLAG -608 -256 SDA
FLAG -688 -224 SCL
FLAG -1168 -32 common_GND
FLAG -1088 -16 5V
FLAG -32 240 common_GND
FLAG -16 352 D2_GPIO4
FLAG -16 400 D1_GPIO5
FLAG -384 64 SDA
FLAG -336 64 SCL
FLAG -240 64 VIN
FLAG -288 16 common_GND
FLAG -1232 -80 0
RECTANGLE Normal 144 -192 -576 -352
RECTANGLE Normal 304 416 64 -16
RECTANGLE Normal -800 288 -1248 64
RECTANGLE Normal -208 288 -416 112
